/batch
/config,noeldb,1     ! force off writing results to database
*get,_wallstrt,active,,time,wall
! ANSYS input file written by Workbench version 2024 R1
! File used for geometry attach: C:\Users\Prakh\Desktop\HIVE\rhydian geometry\amaze sample exports\Sample.step
/title,Amaze--Steady-State Thermal (C5)
! ****** Begin Custom Load Command Snippet ******
/COM, ACT Extensions:
/COM,     LSDYNA, 2024.1
/COM,     5f463412-bd3e-484b-87e7-cbc0a665e474, wbex
/COM,/COM,     ANSYSMotion, 2024.1
/COM,     20180725-3f81-49eb-9f31-41364844c769, wbex
/COM,
! ****** End   Custom Load Command Snippet ******
*DIM,_wb_ProjectScratch_dir,string,248
_wb_ProjectScratch_dir(1) = 'C:\Users\Prakh\Desktop\HIVE\ANSYS\_ProjectScratch\Scr673C\'
*DIM,_wb_SolverFiles_dir,string,248
_wb_SolverFiles_dir(1) = 'C:\Users\Prakh\Desktop\HIVE\ANSYS\Amaze_files\dp0\SYS-1\MECH\'
*DIM,_wb_userfiles_dir,string,248
_wb_userfiles_dir(1) = 'C:\Users\Prakh\Desktop\HIVE\ANSYS\Amaze_files\user_files\'
/com,--- Data in consistent MKS units. See Solving Units in the help system for more information.
/units,MKS
/nopr
/wb,file,start              !  signify a WB generated input file
/prep7
! Turn off shape checking because checks already performed inside WB mesher.
! See help system for more information.
SHPP,OFF,,NOWARN
/nolist
etcon,set             ! allow ANSYS to choose best KEYOP's for 180x elements, resets any applicable keyopt to MAPDL defaults
/com,*********** Nodes for the whole assembly ***********
nblock,3,,20262
(1i9,3e20.9e3)
        1     5.046832328E-03     4.761904762E-02     4.182653531E-03
        2     5.046832328E-03     4.523809524E-02     4.182653531E-03
        3     5.046832328E-03     4.285714286E-02     4.182653531E-03
        4     5.046832328E-03     4.047619048E-02     4.182653531E-03
        5     5.046832328E-03     3.809523810E-02     4.182653531E-03
        6     5.046832328E-03     3.571428571E-02     4.182653531E-03
        7     5.046832328E-03     3.333333333E-02     4.182653531E-03
        8     5.046832328E-03     3.095238095E-02     4.182653531E-03
        9     5.046832328E-03     2.857142857E-02     4.182653531E-03
       10     5.046832328E-03     2.619047619E-02     4.182653531E-03
       11     5.046832328E-03     2.380952381E-02     4.182653531E-03
       12     5.046832328E-03     2.142857143E-02     4.182653531E-03
       13     5.046832328E-03     1.904761905E-02     4.182653531E-03
       14     5.046832328E-03     1.666666667E-02     4.182653531E-03
       15     5.046832328E-03     1.428571429E-02     4.182653531E-03
       16     5.046832328E-03     1.190476190E-02     4.182653531E-03
       17     5.046832328E-03     9.523809524E-03     4.182653531E-03
       18     5.046832328E-03     7.142857143E-03     4.182653531E-03
       19     5.046832328E-03     4.761904762E-03     4.182653531E-03
       20     5.046832328E-03     2.380952381E-03     4.182653531E-03
! ... 18401 like lines cut
/wb,elem,start            !  set before creation of elements
/com,*********** Elements for Body 1 "Open CASCADE STEP translator 7.5 1.1|Open CASCADE STEP translator 7.5 1.1" ***********
et,1,279
eblock,19,solid,,1722
(19i9)
        1        1        1        1        0        0        0        0       20        0        1       81     2415     2414      781     1088     2430     2429     1053
     2834     9018     5348     2832     6369     9049     6277     6275     2833     9022     9019     5346
        1        1        1        1        0        0        0        0       20        0        2       81      781     2414     2415       82      782     2399     2400
     2832     5348     9018     2834     2838     5352     8987     2839     2829     5344     8988     8991
        1        1        1        1        0        0        0        0       20        0        3       82      782     2399     2400       83      783     2384     2385
     2838     5352     8987     2839     2843     5356     8956     2844     2835     5349     8957     8960
        1        1        1        1        0        0        0        0       20        0        4       83      783     2384     2385       84      784     2369     2370
     2843     5356     8956     2844     2848     5360     8925     2849     2840     5353     8926     8929
        1        1        1        1        0        0        0        0       20        0        5       84      784     2369     2370       85      785     2354     2355
     2848     5360     8925     2849     2853     5364     8894     2854     2845     5357     8895     8898
        1        1        1        1        0        0        0        0       20        0        6       85      785     2354     2355       86      786     2339     2340
     2853     5364     8894     2854     2858     5368     8863     2859     2850     5361     8864     8867
        1        1        1        1        0        0        0        0       20        0        7       86      786     2339     2340       87      787     2324     2325
     2858     5368     8863     2859     2863     5372     8832     2864     2855     5365     8833     8836
        1        1        1        1        0        0        0        0       20        0        8       87      787     2324     2325       88      788     2309     2310
     2863     5372     8832     2864     2868     5376     8801     2869     2860     5369     8802     8805
        1        1        1        1        0        0        0        0       20        0        9       88      788     2309     2310       89      789     2294     2295
     2868     5376     8801     2869     2873     5380     8770     2874     2865     5373     8771     8774
        1        1        1        1        0        0        0        0       20        0       10       89      789     2294     2295       90      790     2279     2280
     2873     5380     8770     2874     2878     5384     8739     2879     2870     5377     8740     8743
! ... 3425 like lines cut
!Material Id = {1C76F2EE-AA0C-45A6-9DB4-3058434CC068}
/com,*********** Elements for Body 2 "Open CASCADE STEP translator 7.5 1.1|Open CASCADE STEP translator 7.5 1.1[2]" ***********
et,2,279
eblock,19,solid,,920
(19i9)
        2        2        2        2        0        0        0        0       20        0     1723     9085     9107     9319     9318     9222     9221    10045    10044
    10766    10857    11543    10769    11267    11268    13605    11270    10768    10856    11548    11545
        2        2        2        2        0        0        0        0       20        0     1724     9085     9318     9319     9107     9086     9351     9352     9108
    10769    11543    10857    10766    10773    11647    10861    10771    10765    11544    11547    10854
        2        2        2        2        0        0        0        0       20        0     1725     9086     9351     9352     9108     9087     9384     9385     9109
    10773    11647    10861    10771    10777    11743    10865    10775    10770    11648    11650    10859
        2        2        2        2        0        0        0        0       20        0     1726     9087     9384     9385     9109     9088     9417     9418     9110
    10777    11743    10865    10775    10781    11839    10869    10779    10774    11744    11746    10863
        2        2        2        2        0        0        0        0       20        0     1727     9088     9417     9418     9110     9089     9450     9451     9111
    10781    11839    10869    10779    10785    11935    10873    10783    10778    11840    11842    10867
        2        2        2        2        0        0        0        0       20        0     1728     9089     9450     9451     9111     9090     9483     9484     9112
    10785    11935    10873    10783    10789    12031    10877    10787    10782    11936    11938    10871
        2        2        2        2        0        0        0        0       20        0     1729     9090     9483     9484     9112     9091     9516     9517     9113
    10789    12031    10877    10787    10793    12127    10881    10791    10786    12032    12034    10875
        2        2        2        2        0        0        0        0       20        0     1730     9091     9516     9517     9113     9092     9549     9550     9114
    10793    12127    10881    10791    10797    12223    10885    10795    10790    12128    12130    10879
        2        2        2        2        0        0        0        0       20        0     1731     9092     9549     9550     9114     9093     9582     9583     9115
    10797    12223    10885    10795    10801    12319    10889    10799    10794    12224    12226    10883
        2        2        2        2        0        0        0        0       20        0     1732     9093     9582     9583     9115     9094     9615     9616     9116
    10801    12319    10889    10799    10805    12415    10893    10803    10798    12320    12322    10887
! ... 1821 like lines cut
!Material Id = {0CED180A-BB7F-4FC7-A9DA-05424E912465}
/com,*********** Elements for Body 3 "Open CASCADE STEP translator 7.5 1.1|Open CASCADE STEP translator 7.5 1.1[3]" ***********
et,3,291
eblock,19,solid,,1825
(19i9)
        3        3        3        3        0        0        0        0       10        0     2643    15451    15452    15583    15556    18046    18059    18052    18049
    18057    18409
        3        3        3        3        0        0        0        0       10        0     2644    15451    15583    15516    15556    18052    18334    18048    18049
    18409    18331
        3        3        3        3        0        0        0        0       10        0     2645    15075    15583    15451    15452    15936    18052    15934    15935
    18059    18046
        3        3        3        3        0        0        0        0       10        0     2646    15075    15401    15583    15420    15932    17811    15936    15933
    17803    17919
        3        3        3        3        0        0        0        0       10        0     2647    15302    15583    15356    15511    17139    17475    17132    17134
    18312    17470
        3        3        3        3        0        0        0        0       10        0     2648    15452    15583    15556    15571    18059    18409    18057    18058
    18418    18407
        3        3        3        3        0        0        0        0       10        0     2649    15075    15583    15076    15420    15936    15942    15931    15933
    17919    15939
        3        3        3        3        0        0        0        0       10        0     2650    15075    15076    15583    15452    15931    15942    15936    15935
    15940    18059
        3        3        3        3        0        0        0        0       10        0     2651    15302    15583    15514    15520    17139    18327    17135    17137
    18349    18323
        3        3        3        3        0        0        0        0       10        0     2652    15302    15583    15511    15514    17139    18312    17134    17135
    18327    18308
! ... 3631 like lines cut
!Material Id = {3FA8201B-95C9-402C-AD0C-679C63C0795D}
/wb,elem,end               !  done creating elements
/com,*********** Send User Defined Coordinate System(s) ***********
csys,0
toffst,273.15,  ! Temperature offset from absolute zero
/wb,mat,start              !  starting to send materials
/com,*********** Send Materials ***********
Temperature = 'TEMP' ! Temperature
MP,DENS,1,7850,	! kg m^-3
MP,C,1,434,	! J kg^-1 C^-1
MP,KXX,1,418.8,	! W m^-1 C^-1
MP,RSVX,1,1.7e-07,	! kg m^3 A^-2 s^-3
MP,EX,1,200000000000,	! Pa
MP,NUXY,1,0.3,
MP,MURX,1,10000,
MP,UVID,1,2e818d14-c177-4431-ae52-822b42458f55
MP,UMID,1,59002a79-71c2-428e-906b-55d7dbee100e

Temperature = 'TEMP' ! Temperature
MP,DENS,2,7850,	! kg m^-3
MP,C,2,434,	! J kg^-1 C^-1
MP,KXX,2,418.8,	! W m^-1 C^-1
MP,RSVX,2,1.7e-07,	! kg m^3 A^-2 s^-3
MP,EX,2,200000000000,	! Pa
MP,NUXY,2,0.3,
MP,MURX,2,10000,
MP,UVID,2,2e818d14-c177-4431-ae52-822b42458f55
MP,UMID,2,59002a79-71c2-428e-906b-55d7dbee100e

Temperature = 'TEMP' ! Temperature
MP,DENS,3,7850,	! kg m^-3
MP,C,3,434,	! J kg^-1 C^-1
MP,KXX,3,418.8,	! W m^-1 C^-1
MP,RSVX,3,1.7e-07,	! kg m^3 A^-2 s^-3
MP,EX,3,200000000000,	! Pa
MP,NUXY,3,0.3,
MP,MURX,3,10000,
MP,UVID,3,2e818d14-c177-4431-ae52-822b42458f55
MP,UMID,3,59002a79-71c2-428e-906b-55d7dbee100e

/wb,mat,end                !  done sending materials
!************************* Model Summary ********************
!Open CASCADE STEP translator 7.5 1.1|Open CASCADE STEP translator 7.5 1.1,	Structural Steel,	matid,	1
!Open CASCADE STEP translator 7.5 1.1|Open CASCADE STEP translator 7.5 1.1[2],	Structural Steel,	matid,	2
!Open CASCADE STEP translator 7.5 1.1|Open CASCADE STEP translator 7.5 1.1[3],	Structural Steel,	matid,	3
!************************* End Model Summary ********************
! get the diagonal of the bounding box. Needed later for other things
*get,_xmin,node,,mnloc,x
*get,_ymin,node,,mnloc,y
*get,_zmin,node,,mnloc,z
*get,_xmax,node,,mxloc,x
*get,_ymax,node,,mxloc,y
*get,_zmax,node,,mxloc,z
_ASMDIAG=(_xmax-_xmin)*(_xmax-_xmin)+(_ymax-_ymin)*(_ymax-_ymin)+(_zmax-_zmin)*(_zmax-_zmin)
_ASMDIAG=SQRT(_ASMDIAG)
/wb,contact,start          !  starting to send contact
/com,*********** Create Contact "Bonded - top" ***********
/com,            Real Constant Set For Above Contact Is 5 & 4 
*set,tid,5
*set,cid,4
r,tid
r,cid
et,tid,170
et,cid,174
eblock,10,,,169
(15i9)
     8332        5        5        5        0     1622     1467     1455     1454     7162     7138     7134     7135
     8333        5        5        5        0     1621     1479     1467     1622     7186     7161     7162     7469
     8334        5        5        5        0     1620     1491     1479     1621     7210     7185     7186     7467
     8335        5        5        5        0     1619     1503     1491     1620     7234     7209     7210     7465
     8336        5        5        5        0     1618     1515     1503     1619     7258     7233     7234     7463
     8337        5        5        5        0     1617     1527     1515     1618     7282     7257     7258     7461
     8338        5        5        5        0     1616     1539     1527     1617     7306     7281     7282     7459
     8339        5        5        5        0     1615     1551     1539     1616     7330     7305     7306     7457
     8340        5        5        5        0     1614     1563     1551     1615     7354     7329     7330     7455
     8341        5        5        5        0     1613     1575     1563     1614     7378     7353     7354     7453
     8342        5        5        5        0     1612     1587     1575     1613     7402     7377     7378     7451
     8343        5        5        5        0     1611     1599     1587     1612     7425     7401     7402     7448
     8344        5        5        5        0     1623     1624     1599     1611     7472     7426     7425     7449
     8345        5        5        5        0     1467     1468     1456     1455     7160     7140     7137     7138
     8346        5        5        5        0     1479     1480     1468     1467     7184     7164     7160     7161
     8347        5        5        5        0     1491     1492     1480     1479     7208     7188     7184     7185
     8348        5        5        5        0     1503     1504     1492     1491     7232     7212     7208     7209
     8349        5        5        5        0     1515     1516     1504     1503     7256     7236     7232     7233
     8350        5        5        5        0     1527     1528     1516     1515     7280     7260     7256     7257
     8351        5        5        5        0     1539     1540     1528     1527     7304     7284     7280     7281
! ... 150 like lines cut
eblock,10,,,169
(15i9)
     8501        4        4        4        0     1622     1467     1455     1454     7162     7138     7134     7135
     8502        4        4        4        0     1621     1479     1467     1622     7186     7161     7162     7469
     8503        4        4        4        0     1620     1491     1479     1621     7210     7185     7186     7467
     8504        4        4        4        0     1619     1503     1491     1620     7234     7209     7210     7465
     8505        4        4        4        0     1618     1515     1503     1619     7258     7233     7234     7463
     8506        4        4        4        0     1617     1527     1515     1618     7282     7257     7258     7461
     8507        4        4        4        0     1616     1539     1527     1617     7306     7281     7282     7459
     8508        4        4        4        0     1615     1551     1539     1616     7330     7305     7306     7457
     8509        4        4        4        0     1614     1563     1551     1615     7354     7329     7330     7455
     8510        4        4        4        0     1613     1575     1563     1614     7378     7353     7354     7453
     8511        4        4        4        0     1612     1587     1575     1613     7402     7377     7378     7451
     8512        4        4        4        0     1611     1599     1587     1612     7425     7401     7402     7448
     8513        4        4        4        0     1623     1624     1599     1611     7472     7426     7425     7449
     8514        4        4        4        0     1467     1468     1456     1455     7160     7140     7137     7138
     8515        4        4        4        0     1479     1480     1468     1467     7184     7164     7160     7161
     8516        4        4        4        0     1491     1492     1480     1479     7208     7188     7184     7185
     8517        4        4        4        0     1503     1504     1492     1491     7232     7212     7208     7209
     8518        4        4        4        0     1515     1516     1504     1503     7256     7236     7232     7233
     8519        4        4        4        0     1527     1528     1516     1515     7280     7260     7256     7257
     8520        4        4        4        0     1539     1540     1528     1527     7304     7284     7280     7281
! ... 150 like lines cut
eblock,10,,,202
(15i9)
     8670        4        5        4        0    15381    15386    15419    15419    17638    17681    15419    17641
     8671        4        5        4        0    15376    15395    15393    15393    17588    17742    15393    17587
     8672        4        5        4        0    15378    15382    15398    15398    17608    17649    15398    17611
     8673        4        5        4        0    15382    15391    15402    15402    17646    17727    15402    17650
     8674        4        5        4        0    15384    15409    15395    15395    17665    17757    15395    17664
     8675        4        5        4        0    15388    15409    15430    15430    17699    17859    15430    17700
     8676        4        5        4        0    15377    15446    15429    15429    17604    17953    15429    17603
     8677        4        5        4        0    15404    15439    15436    15436    17826    17982    15436    17825
     8678        4        5        4        0    15405    15442    15376    15376    17834    17592    15376    17589
     8679        4        5        4        0    15378    15424    15387    15387    17612    17692    15387    17609
     8680        4        5        4        0    15101    15115    15129    15129    16092    16159    15129    16093
     8681        4        5        4        0    15379    15438    15403    15403    17624    17819    15403    17620
     8682        4        5        4        0    15376    15445    15405    15405    17593    17835    15405    17589
     8683        4        5        4        0    15387    15412    15405    15405    17691    17832    15405    17690
     8684        4        5        4        0    15437    15445    15432    15432    17988    17967    15432    17965
     8685        4        5        4        0    15389    15428    15435    15435    17710    17950    15435    17711
     8686        4        5        4        0    15382    15402    15398    15398    17650    17781    15398    17649
     8687        4        5        4        0    15383    15406    15413    15413    17656    17840    15413    17658
     8688        4        5        4        0    15378    15425    15437    15437    17613    17936    15437    17614
     8689        4        5        4        0    15382    15396    15391    15391    17648    17726    15391    17646
! ... 183 like lines cut
eblock,10,,,202
(15i9)
     8872        5        4        5        0    15381    15386    15419    15419    17638    17681    15419    17641
     8873        5        4        5        0    15376    15395    15393    15393    17588    17742    15393    17587
     8874        5        4        5        0    15378    15382    15398    15398    17608    17649    15398    17611
     8875        5        4        5        0    15382    15391    15402    15402    17646    17727    15402    17650
     8876        5        4        5        0    15384    15409    15395    15395    17665    17757    15395    17664
     8877        5        4        5        0    15388    15409    15430    15430    17699    17859    15430    17700
     8878        5        4        5        0    15377    15446    15429    15429    17604    17953    15429    17603
     8879        5        4        5        0    15404    15439    15436    15436    17826    17982    15436    17825
     8880        5        4        5        0    15405    15442    15376    15376    17834    17592    15376    17589
     8881        5        4        5        0    15378    15424    15387    15387    17612    17692    15387    17609
     8882        5        4        5        0    15101    15115    15129    15129    16092    16159    15129    16093
     8883        5        4        5        0    15379    15438    15403    15403    17624    17819    15403    17620
     8884        5        4        5        0    15376    15445    15405    15405    17593    17835    15405    17589
     8885        5        4        5        0    15387    15412    15405    15405    17691    17832    15405    17690
     8886        5        4        5        0    15437    15445    15432    15432    17988    17967    15432    17965
     8887        5        4        5        0    15389    15428    15435    15435    17710    17950    15435    17711
     8888        5        4        5        0    15382    15402    15398    15398    17650    17781    15398    17649
     8889        5        4        5        0    15383    15406    15413    15413    17656    17840    15413    17658
     8890        5        4        5        0    15378    15425    15437    15437    17613    17936    15437    17614
     8891        5        4        5        0    15382    15396    15391    15391    17648    17726    15391    17646
! ... 183 like lines cut
keyo,cid,8,2               ! auto create asymmetric contact (from Program Controlled setting)
keyo,cid,10,0              ! adjust contact stiffness each NR iteration (from Program Controlled setting)
keyo,cid,12,5              ! bonded always
keyo,cid,18,1              ! small sliding turned on by application
keyo,cid,2,0               ! augmented Lagrange (from Program Controlled setting)
keyo,cid,4,0               ! on Gauss point (from Program Controlled setting)
keyo,cid,9,1               ! ignore initial gaps/penetration
keyo,cid,7,0               ! No Prediction
rmod,tid,3,10.      ! FKN
rmod,tid,5,0.       ! ICONT
rmod,tid,6,0.       ! PINB
rmod,tid,10,0.      ! CNOF
rmod,tid,12,0.      ! FKT
rmod,tid,36,9212    ! WB DSID
rmod,cid,3,10.      ! FKN
rmod,cid,5,0.       ! ICONT
rmod,cid,6,0.       ! PINB
rmod,cid,10,0.      ! CNOF
rmod,cid,12,0.      ! FKT
rmod,cid,36,9212    ! WB DSID
*set,_maxkxx,4188000.
rmod,cid,14,_maxkxx/_ASMDIAG         ! TCC, Divide by Length since Traction Based
rmod,tid,14,_maxkxx/_ASMDIAG      ! TCC, Divide by Length since Traction Based
keyo,cid,1,2     ! Pure thermal contact
/com,*********** Create Contact "Bonded - bottom" ***********
/com,            Real Constant Set For Above Contact Is 7 & 6 
*set,tid,7
*set,cid,6
r,tid
r,cid
et,tid,170
et,cid,174
eblock,10,,,336
(15i9)
     9074        7        7        7        0     1145     1159     2445     2129     6506     6535     8431     6507
     9075        7        7        7        0     2414     2464     2444     2429     9020     9065     9050     9019
     9076        7        7        7        0     2144     2129     2445     2446     8430     8431     9066     8462
     9077        7        7        7        0     2159     2144     2446     2447     8461     8462     9067     8493
     9078        7        7        7        0     2174     2159     2447     2448     8492     8493     9068     8524
     9079        7        7        7        0     2189     2174     2448     2449     8523     8524     9069     8555
     9080        7        7        7        0     2204     2189     2449     2450     8554     8555     9070     8586
     9081        7        7        7        0     2219     2204     2450     2451     8585     8586     9071     8617
     9082        7        7        7        0     2234     2219     2451     2452     8616     8617     9072     8648
     9083        7        7        7        0     2249     2234     2452     2453     8647     8648     9073     8679
     9084        7        7        7        0     2264     2249     2453     2454     8678     8679     9074     8710
     9085        7        7        7        0     2279     2264     2454     2455     8709     8710     9075     8741
     9086        7        7        7        0     2294     2279     2455     2456     8740     8741     9076     8772
     9087        7        7        7        0     2309     2294     2456     2457     8771     8772     9077     8803
     9088        7        7        7        0     2324     2309     2457     2458     8802     8803     9078     8834
     9089        7        7        7        0     2339     2324     2458     2459     8833     8834     9079     8865
     9090        7        7        7        0     2354     2339     2459     2460     8864     8865     9080     8896
     9091        7        7        7        0     2369     2354     2460     2461     8895     8896     9081     8927
     9092        7        7        7        0     2384     2369     2461     2462     8926     8927     9082     8958
     9093        7        7        7        0     2399     2384     2462     2463     8957     8958     9083     8989
! ... 317 like lines cut
eblock,10,,,336
(15i9)
     9410        6        6        6        0     1145     1159     2445     2129     6506     6535     8431     6507
     9411        6        6        6        0     2414     2464     2444     2429     9020     9065     9050     9019
     9412        6        6        6        0     2144     2129     2445     2446     8430     8431     9066     8462
     9413        6        6        6        0     2159     2144     2446     2447     8461     8462     9067     8493
     9414        6        6        6        0     2174     2159     2447     2448     8492     8493     9068     8524
     9415        6        6        6        0     2189     2174     2448     2449     8523     8524     9069     8555
     9416        6        6        6        0     2204     2189     2449     2450     8554     8555     9070     8586
     9417        6        6        6        0     2219     2204     2450     2451     8585     8586     9071     8617
     9418        6        6        6        0     2234     2219     2451     2452     8616     8617     9072     8648
     9419        6        6        6        0     2249     2234     2452     2453     8647     8648     9073     8679
     9420        6        6        6        0     2264     2249     2453     2454     8678     8679     9074     8710
     9421        6        6        6        0     2279     2264     2454     2455     8709     8710     9075     8741
     9422        6        6        6        0     2294     2279     2455     2456     8740     8741     9076     8772
     9423        6        6        6        0     2309     2294     2456     2457     8771     8772     9077     8803
     9424        6        6        6        0     2324     2309     2457     2458     8802     8803     9078     8834
     9425        6        6        6        0     2339     2324     2458     2459     8833     8834     9079     8865
     9426        6        6        6        0     2354     2339     2459     2460     8864     8865     9080     8896
     9427        6        6        6        0     2369     2354     2460     2461     8895     8896     9081     8927
     9428        6        6        6        0     2384     2369     2461     2462     8926     8927     9082     8958
     9429        6        6        6        0     2399     2384     2462     2463     8957     8958     9083     8989
! ... 317 like lines cut
eblock,10,,,782
(15i9)
     9746        6        7        6        0     9293    10053    10052    10019    11448    13620    13558    11447
     9747        6        7        6        0     9259     9291    10074     9986    11378    11443    13495    11379
     9748        6        7        6        0    10054    10053     9293     9326    13622    11448    11446    11576
     9749        6        7        6        0    10055    10054     9326     9359    13624    11576    11575    11672
     9750        6        7        6        0    10056    10055     9359     9392    13626    11672    11671    11768
     9751        6        7        6        0    10057    10056     9392     9425    13628    11768    11767    11864
     9752        6        7        6        0    10058    10057     9425     9458    13630    11864    11863    11960
     9753        6        7        6        0    10059    10058     9458     9491    13632    11960    11959    12056
     9754        6        7        6        0    10060    10059     9491     9524    13634    12056    12055    12152
     9755        6        7        6        0    10061    10060     9524     9557    13636    12152    12151    12248
     9756        6        7        6        0    10062    10061     9557     9590    13638    12248    12247    12344
     9757        6        7        6        0    10063    10062     9590     9623    13640    12344    12343    12440
     9758        6        7        6        0    10064    10063     9623     9656    13642    12440    12439    12536
     9759        6        7        6        0    10065    10064     9656     9689    13644    12536    12535    12632
     9760        6        7        6        0    10066    10065     9689     9722    13646    12632    12631    12728
     9761        6        7        6        0    10067    10066     9722     9755    13648    12728    12727    12824
     9762        6        7        6        0    10068    10067     9755     9788    13650    12824    12823    12920
     9763        6        7        6        0    10069    10068     9788     9821    13652    12920    12919    13016
     9764        6        7        6        0    10070    10069     9821     9854    13654    13016    13015    13112
     9765        6        7        6        0    10071    10070     9854     9887    13656    13112    13111    13208
! ... 763 like lines cut
eblock,10,,,782
(15i9)
    10528        7        6        7        0     9293    10053    10052    10019    11448    13620    13558    11447
    10529        7        6        7        0     9259     9291    10074     9986    11378    11443    13495    11379
    10530        7        6        7        0    10054    10053     9293     9326    13622    11448    11446    11576
    10531        7        6        7        0    10055    10054     9326     9359    13624    11576    11575    11672
    10532        7        6        7        0    10056    10055     9359     9392    13626    11672    11671    11768
    10533        7        6        7        0    10057    10056     9392     9425    13628    11768    11767    11864
    10534        7        6        7        0    10058    10057     9425     9458    13630    11864    11863    11960
    10535        7        6        7        0    10059    10058     9458     9491    13632    11960    11959    12056
    10536        7        6        7        0    10060    10059     9491     9524    13634    12056    12055    12152
    10537        7        6        7        0    10061    10060     9524     9557    13636    12152    12151    12248
    10538        7        6        7        0    10062    10061     9557     9590    13638    12248    12247    12344
    10539        7        6        7        0    10063    10062     9590     9623    13640    12344    12343    12440
    10540        7        6        7        0    10064    10063     9623     9656    13642    12440    12439    12536
    10541        7        6        7        0    10065    10064     9656     9689    13644    12536    12535    12632
    10542        7        6        7        0    10066    10065     9689     9722    13646    12632    12631    12728
    10543        7        6        7        0    10067    10066     9722     9755    13648    12728    12727    12824
    10544        7        6        7        0    10068    10067     9755     9788    13650    12824    12823    12920
    10545        7        6        7        0    10069    10068     9788     9821    13652    12920    12919    13016
    10546        7        6        7        0    10070    10069     9821     9854    13654    13016    13015    13112
    10547        7        6        7        0    10071    10070     9854     9887    13656    13112    13111    13208
! ... 763 like lines cut
keyo,cid,8,2               ! auto create asymmetric contact (from Program Controlled setting)
keyo,cid,10,0              ! adjust contact stiffness each NR iteration (from Program Controlled setting)
keyo,cid,12,5              ! bonded always
keyo,cid,18,1              ! small sliding turned on by application
keyo,cid,2,0               ! augmented Lagrange (from Program Controlled setting)
keyo,cid,4,0               ! on Gauss point (from Program Controlled setting)
keyo,cid,9,1               ! ignore initial gaps/penetration
keyo,cid,7,0               ! No Prediction
rmod,tid,3,10.      ! FKN
rmod,tid,5,0.       ! ICONT
rmod,tid,6,0.       ! PINB
rmod,tid,10,0.      ! CNOF
rmod,tid,12,0.      ! FKT
rmod,tid,36,9215    ! WB DSID
rmod,cid,3,10.      ! FKN
rmod,cid,5,0.       ! ICONT
rmod,cid,6,0.       ! PINB
rmod,cid,10,0.      ! CNOF
rmod,cid,12,0.      ! FKT
rmod,cid,36,9215    ! WB DSID
*set,_maxkxx,4188000.
rmod,cid,14,_maxkxx/_ASMDIAG         ! TCC, Divide by Length since Traction Based
rmod,tid,14,_maxkxx/_ASMDIAG      ! TCC, Divide by Length since Traction Based
keyo,cid,1,2     ! Pure thermal contact
nsel,all
esel,all
/wb,contact,end            !  done creating contacts
/golist
/wb,load,start             !  starting to send loads
/com,*********** Define Temperature Constraint ***********
CMBLOCK,_CM9246 ,NODE,     2130
(8i10)
      9229      9230      9231      9232      9233      9234      9235      9236
      9237      9238      9239      9240      9241      9242      9243      9244
      9245      9246      9247      9248      9249      9250      9251      9252
      9253      9254      9255      9256      9257      9258     10075     10076
     10077     10078     10079     10080     10081     10082     10083     10084
     10085     10086     10087     10088     10089     10090     10091     10092
     10093     10094     10095     10096     10097     10098     10099     10100
     10101     10102     10103     10104     10105     10106     10107     10108
     10109     10110     10111     10112     10113     10114     10115     10116
     10117     10118     10119     10120     10121     10122     10123     10124
     10125     10126     10127     10128     10129     10130     10131     10132
     10133     10134     10135     10136     10137     10138     10139     10140
     10141     10142     10143     10144     10145     10146     10147     10148
     10149     10150     10151     10152     10153     10154     10155     10156
     10157     10158     10159     10160     10161     10162     10163     10164
     10165     10166     10167     10168     10169     10170     10171     10172
     10173     10174     10175     10176     10177     10178     10179     10180
     10181     10182     10183     10184     10185     10186     10187     10188
     10189     10190     10191     10192     10193     10194     10195     10196
     10197     10198     10199     10200     10201     10202     10203     10204
! ... 247 like lines cut
fcum,add                   ! add nodal forces up (needed in case have loads on the same edge,vertex)
fcum                       ! reset default on fcum command since done sending WB F loads
/com,***************** Define Uniform Initial temperature ***************
tunif,40.
/gst,on,on
fini
*get,_numnode,node,0,count
*get,_numelem,elem,0,count
*get, _MAXELEMNUM, elem, 0, NUM, MAX
*get, _MAXNODENUM, node, 0, NUM, MAX
*get, _MAXELEMTYPE, etyp, 0, NUM, MAX
*get, _MAXREALCONST, rcon, 0, NUM, MAX
/go
/wb,load,end               !  done creating loads
/com,--- Number of total nodes = %_numnode%
/com,--- Number of contact elements = 2978
/com,--- Number of spring elements = 0
/com,--- Number of bearing elements = 0
/com,--- Number of solid elements = 4467
/com,--- Number of condensed parts = 0
/com,--- Number of total elements = %_numelem%
*get,_wallbsol,active,,time,wall
/com,****************************************************************************
/com,*************************    SOLUTION       ********************************
/com,****************************************************************************
/solu
antype,0                   ! static analysis
!eqsl,sparse               ! using sparse solver which is default so no eqsl command needed
cntr,print,1               ! print out contact info and also make no initial contact an error
cncheck,dmp		!	Enable program controlled contact splitting for distributed memory parallel run
rescontrol,,none                 ! Do not keep any restart files
dmpoption,emat,no             ! Don't combine emat file for DANSYS
dmpoption,esav,no             ! Don't combine esav file for DANSYS
/com,****************************************************
/com,******************* SOLVE FOR LS 1 OF 1 ****************
d,_CM9246,temp,20.
/com,*********** Create Imported Load "Imported Heat Generation" ***********
/nopr
bfeblock,3,hgen,4467,4467,0
(2i9,e20.9e3)
        1        1     4.065334978e-01
        2        1     4.276185271e-01
        3        1     4.345883962e-01
        4        1     4.118028888e-01
        5        1     3.841375983e-01
        6        1     3.041760922e-01
        7        1     2.270598684e-01
        8        1     1.651500966e-01
        9        1     8.011779985e-02
       10        1     3.656241515e-02
       11        1     3.298960669e-02
       12        1     4.746586590e-02
       13        1     1.034269292e-01
       14        1     1.771708829e-01
       15        1     2.927898685e-01
       16        1     3.870375567e-01
       17        1     4.814403747e-01
       18        1     5.451332452e-01
       19        1     5.669353615e-01
       20        1     5.468866120e-01
! ... 4447 like lines cut
bfe,end,loc,-1,
/gopr
/nopr
/gopr
autots,on
nsub,1,10,1
time,1.
outres,erase
outres,all,none
outres,nsol,all
outres,rsol,all
outres,eangl,all
outres,veng,all
outres,fflux,all,
outres,cont,all,
cnvtol,heat,,1.e-003,,1.e-006 ! Program Controlled. Set MINREF equivalent of 1e-6 Watts
! *********** WB SOLVE COMMAND ***********
! check interactive state
*get,ANSINTER_,active,,int
*if,ANSINTER_,ne,0,then
/eof
*endif
solve
/com *************** Write FE CONNECTORS ********* 
CEWRITE,file,ce,,INTE
/com,****************************************************
/com,*************** FINISHED SOLVE FOR LS 1 *************
*get,_wallasol,active,,time,wall
/post1
xmlo,ENCODING,ISO-8859-1
xmlo,parm
/xml,parm,xml
fini
/gopr
*get,_walldone,active,,time,wall
_preptime=(_wallbsol-_wallstrt)*3600
_solvtime=(_wallasol-_wallbsol)*3600
_posttime=(_walldone-_wallasol)*3600
_totaltim=(_walldone-_wallstrt)*3600
*get,_dlbratio,active,0,solu,dlbr
*get,_combtime,active,0,solu,comb
*get,_ssmode,active,0,solu,ssmm
*get,_ndofs,active,0,solu,ndof
/fclean				!clean distributed files
/com,--- Total number of nodes = %_numnode%
/com,--- Total number of elements = %_numelem%
/com,--- Element load balance ratio = %_dlbratio%
/com,--- Time to combine distributed files = %_combtime%
/com,--- Sparse memory mode = %_ssmode%
/com,--- Number of DOF = %_ndofs%
/wb,file,end               ! done with WB generated input
